# generated using pymatgen
data_Mn
_symmetry_space_group_name_H-M   'P 1'
_cell_length_a   6.20000000
_cell_length_b   6.20000000
_cell_length_c   11.40000000
_cell_angle_alpha   90.00000000
_cell_angle_beta   90.00000000
_cell_angle_gamma   120.00000000
_symmetry_Int_Tables_number   1
_chemical_formula_structural   Mn
_chemical_formula_sum   Mn6
_cell_volume   379.50618834
_cell_formula_units_Z   6
loop_
 _symmetry_equiv_pos_site_id
 _symmetry_equiv_pos_as_xyz
  1  'x, y, z'
loop_
 _atom_site_type_symbol
 _atom_site_label
 _atom_site_symmetry_multiplicity
 _atom_site_fract_x
 _atom_site_fract_y
 _atom_site_fract_z
 _atom_site_occupancy
  Mn  Mn0  1  0.33333333  0.33333333  0.50000000  1
  Mn  Mn1  1  0.66666667  0.66666667  0.00000000  1
  Mn  Mn2  1  0.00000000  0.66666667  0.50000000  1
  Mn  Mn3  1  0.00000000  0.33333333  0.00000000  1
  Mn  Mn4  1  0.66666667  0.00000000  0.50000000  1
  Mn  Mn5  1  0.33333333  0.00000000  0.00000000  1
loop_
 _atom_site_moment_label
 _atom_site_moment_crystalaxis_x
 _atom_site_moment_crystalaxis_y
 _atom_site_moment_crystalaxis_z
  Mn0  -3.14300000  -3.14300000  0.00000000
  Mn1  -3.14300000  -3.14300000  0.00000000
  Mn2  0.00000000  3.14300000  0.00000000
  Mn3  0.00000000  3.14300000  0.00000000
  Mn4  3.14300000  0.00000000  0.00000000
  Mn5  3.14300000  0.00000000  0.00000000
